/*--------------------------------*- C++ -*----------------------------------*\
| =========                 |                                                 |
| \\      /  F ield         | OpenFOAM: The Open Source CFD Toolbox           |
|  \\    /   O peration     | Version:  v2012                                 |
|   \\  /    A nd           | Website:  www.openfoam.com                      |
|    \\/     M anipulation  |                                                 |
\*---------------------------------------------------------------------------*/
FoamFile
{
    version     2.0;
    format      ascii;
    class       polyBoundaryMesh;
    location    "constant/polyMesh";
    object      boundary;
}
// * * * * * * * * * * * * * * * * * * * * * * * * * * * * * * * * * * * * * //

5
(
    inlet
    {
        type            patch;
        nFaces          120;
        startFace       7020;
    }
    outlet
    {
        type            patch;
        nFaces          0;
        startFace       7140;
    }
    walls
    {
        type            wall;
        inGroups        1(wall);
        nFaces          52;
        startFace       7140;
    }
    sides
    {
        type            symmetry;
        inGroups        1(symmetry);
        nFaces          1789;
        startFace       7192;
    }
    procBoundary5to4
    {
        type            processor;
        inGroups        1(processor);
        nFaces          121;
        startFace       8981;
        matchTolerance  0.0001;
        transform       unknown;
        myProcNo        5;
        neighbProcNo    4;
    }
)

// ************************************************************************* //
