/*--------------------------------*- C++ -*----------------------------------*\
| =========                 |                                                 |
| \\      /  F ield         | OpenFOAM: The Open Source CFD Toolbox           |
|  \\    /   O peration     | Version:  v2012                                 |
|   \\  /    A nd           | Website:  www.openfoam.com                      |
|    \\/     M anipulation  |                                                 |
\*---------------------------------------------------------------------------*/
FoamFile
{
    version     2.0;
    format      ascii;
    class       polyBoundaryMesh;
    location    "constant/polyMesh";
    object      boundary;
}
// * * * * * * * * * * * * * * * * * * * * * * * * * * * * * * * * * * * * * //

6
(
    inlet
    {
        type            patch;
        nFaces          0;
        startFace       6728;
    }
    outlet
    {
        type            patch;
        nFaces          0;
        startFace       6728;
    }
    walls
    {
        type            wall;
        inGroups        1(wall);
        nFaces          179;
        startFace       6728;
    }
    sides
    {
        type            symmetry;
        inGroups        1(symmetry);
        nFaces          2194;
        startFace       6907;
    }
    procBoundary3to0
    {
        type            processor;
        inGroups        1(processor);
        nFaces          70;
        startFace       9101;
        matchTolerance  0.0001;
        transform       unknown;
        myProcNo        3;
        neighbProcNo    0;
    }
    procBoundary3to4
    {
        type            processor;
        inGroups        1(processor);
        nFaces          82;
        startFace       9171;
        matchTolerance  0.0001;
        transform       unknown;
        myProcNo        3;
        neighbProcNo    4;
    }
)

// ************************************************************************* //
