/*--------------------------------*- C++ -*----------------------------------*\
| =========                 |                                                 |
| \\      /  F ield         | OpenFOAM: The Open Source CFD Toolbox           |
|  \\    /   O peration     | Version:  v2012                                 |
|   \\  /    A nd           | Website:  www.openfoam.com                      |
|    \\/     M anipulation  |                                                 |
\*---------------------------------------------------------------------------*/
FoamFile
{
    version     2.0;
    format      ascii;
    class       volVectorField;
    location    "0";
    object      U;
}
// * * * * * * * * * * * * * * * * * * * * * * * * * * * * * * * * * * * * * //

dimensions      [0 1 -1 0 0 0 0];


internalField   uniform (0 0 0);

boundaryField
{
    inlet
    {
        type            zeroGradient; // assumes fully developed 
        
    }
    outlet
    {
        type            inletOutlet; // same as zeroGradient but switches to inletValue
        inletValue      uniform (0 0 0);   // in the case of backflow
        value           uniform (0 0 0);   // value for inlet from patch
    }
    /*
    was:
    inlet
    {
        type            pressureInletOutletVelocity;
        value           uniform (0 0 0);
    }
    outlet
    {
        type            zeroGradient; // assumes fully developed 
    }
    */
    walls
    {
        type            noSlip; // standard BC pretty sure
    }
    sides
    {
        type            symmetry; // believe should be "cyclic" like in p_rgh
    }
}


// ************************************************************************* //
