/*--------------------------------*- C++ -*----------------------------------*\
| =========                 |                                                 |
| \\      /  F ield         | OpenFOAM: The Open Source CFD Toolbox           |
|  \\    /   O peration     | Version:  v2012                                 |
|   \\  /    A nd           | Website:  www.openfoam.com                      |
|    \\/     M anipulation  |                                                 |
\*---------------------------------------------------------------------------*/
FoamFile
{
    version     2.0;
    format      ascii;
    class       polyBoundaryMesh;
    location    "constant/polyMesh";
    object      boundary;
}
// * * * * * * * * * * * * * * * * * * * * * * * * * * * * * * * * * * * * * //

10
(
    inlet
    {
        type            patch;
        nFaces          0;
        startFace       6347;
    }
    outlet
    {
        type            patch;
        nFaces          0;
        startFace       6347;
    }
    walls
    {
        type            wall;
        inGroups        1(wall);
        nFaces          82;
        startFace       6347;
    }
    side1
    {
        type            cyclic;
        inGroups        1(cyclic);
        nFaces          1309;
        startFace       6429;
        matchTolerance  0.0001;
        transform       unknown;
        neighbourPatch  side2;
    }
    side2
    {
        type            cyclic;
        inGroups        1(cyclic);
        nFaces          1309;
        startFace       7738;
        matchTolerance  0.0001;
        transform       unknown;
        neighbourPatch  side1;
    }
    procBoundary3to0
    {
        type            processor;
        inGroups        1(processor);
        nFaces          70;
        startFace       9047;
        matchTolerance  0.0001;
        transform       unknown;
        myProcNo        3;
        neighbProcNo    0;
    }
    procBoundary3to0throughside1
    {
        type            processorCyclic;
        inGroups        1(processorCyclic);
        nFaces          1;
        startFace       9117;
        matchTolerance  0.0001;
        transform       unknown;
        myProcNo        3;
        neighbProcNo    0;
        referPatch      side1;
    }
    procBoundary3to1
    {
        type            processor;
        inGroups        1(processor);
        nFaces          72;
        startFace       9118;
        matchTolerance  0.0001;
        transform       unknown;
        myProcNo        3;
        neighbProcNo    1;
    }
    procBoundary3to2
    {
        type            processor;
        inGroups        1(processor);
        nFaces          14;
        startFace       9190;
        matchTolerance  0.0001;
        transform       unknown;
        myProcNo        3;
        neighbProcNo    2;
    }
    procBoundary3to4
    {
        type            processor;
        inGroups        1(processor);
        nFaces          10;
        startFace       9204;
        matchTolerance  0.0001;
        transform       unknown;
        myProcNo        3;
        neighbProcNo    4;
    }
)

// ************************************************************************* //
