/*--------------------------------*- C++ -*----------------------------------*\
| =========                 |                                                 |
| \\      /  F ield         | OpenFOAM: The Open Source CFD Toolbox           |
|  \\    /   O peration     | Version:  v2006                                 |
|   \\  /    A nd           | Website:  www.openfoam.com                      |
|    \\/     M anipulation  |                                                 |
\*---------------------------------------------------------------------------*/
FoamFile
{
    version     2.0;
    format      ascii;
    class       polyBoundaryMesh;
    location    "constant/polyMesh";
    object      boundary;
}
// * * * * * * * * * * * * * * * * * * * * * * * * * * * * * * * * * * * * * //

5
(
    Inlet
    {
        type            patch;
        nFaces          0;
        startFace       5860;
    }
    Outlet
    {
        type            patch;
        nFaces          26;
        startFace       5860;
    }
    Symmetric
    {
        type            symmetry;
        inGroups        1(symmetry);
        nFaces          2343;
        startFace       5886;
    }
    Wall
    {
        type            wall;
        inGroups        1(wall);
        nFaces          217;
        startFace       8229;
    }
    procBoundary2to3
    {
        type            processor;
        inGroups        1(processor);
        nFaces          34;
        startFace       8446;
        matchTolerance  0.0001;
        transform       unknown;
        myProcNo        2;
        neighbProcNo    3;
    }
)

// ************************************************************************* //
