/*--------------------------------*- C++ -*----------------------------------*\
| =========                 |                                                 |
| \\      /  F ield         | OpenFOAM: The Open Source CFD Toolbox           |
|  \\    /   O peration     | Version:  v2012                                 |
|   \\  /    A nd           | Website:  www.openfoam.com                      |
|    \\/     M anipulation  |                                                 |
\*---------------------------------------------------------------------------*/
FoamFile
{
    version     2.0;
    format      ascii;
    class       polyBoundaryMesh;
    location    "constant/polyMesh";
    object      boundary;
}
// * * * * * * * * * * * * * * * * * * * * * * * * * * * * * * * * * * * * * //

6
(
    inlet
    {
        type            patch;
        nFaces          0;
        startFace       6958;
    }
    outlet
    {
        type            patch;
        nFaces          0;
        startFace       6958;
    }
    walls
    {
        type            wall;
        inGroups        1(wall);
        nFaces          152;
        startFace       6958;
    }
    sides
    {
        type            symmetry;
        inGroups        1(symmetry);
        nFaces          1717;
        startFace       7110;
    }
    procBoundary0to2
    {
        type            processor;
        inGroups        1(processor);
        nFaces          120;
        startFace       8827;
        matchTolerance  0.0001;
        transform       unknown;
        myProcNo        0;
        neighbProcNo    2;
    }
    procBoundary0to3
    {
        type            processor;
        inGroups        1(processor);
        nFaces          70;
        startFace       8947;
        matchTolerance  0.0001;
        transform       unknown;
        myProcNo        0;
        neighbProcNo    3;
    }
)

// ************************************************************************* //
