/*--------------------------------*- C++ -*----------------------------------*\
| =========                 |                                                 |
| \\      /  F ield         | OpenFOAM: The Open Source CFD Toolbox           |
|  \\    /   O peration     | Version:  v2012                                 |
|   \\  /    A nd           | Website:  www.openfoam.com                      |
|    \\/     M anipulation  |                                                 |
\*---------------------------------------------------------------------------*/
FoamFile
{
    version     2.0;
    format      ascii;
    class       polyBoundaryMesh;
    location    "constant/polyMesh";
    object      boundary;
}
// * * * * * * * * * * * * * * * * * * * * * * * * * * * * * * * * * * * * * //

6
(
    inlet
    {
        type            patch;
        nFaces          0;
        startFace       6988;
    }
    outlet
    {
        type            patch;
        nFaces          0;
        startFace       6988;
    }
    walls
    {
        type            wall;
        inGroups        1(wall);
        nFaces          141;
        startFace       6988;
    }
    sides
    {
        type            symmetry;
        inGroups        1(symmetry);
        nFaces          1742;
        startFace       7129;
    }
    procBoundary4to3
    {
        type            processor;
        inGroups        1(processor);
        nFaces          82;
        startFace       8871;
        matchTolerance  0.0001;
        transform       unknown;
        myProcNo        4;
        neighbProcNo    3;
    }
    procBoundary4to5
    {
        type            processor;
        inGroups        1(processor);
        nFaces          121;
        startFace       8953;
        matchTolerance  0.0001;
        transform       unknown;
        myProcNo        4;
        neighbProcNo    5;
    }
)

// ************************************************************************* //
