/*--------------------------------*- C++ -*----------------------------------*\
| =========                 |                                                 |
| \\      /  F ield         | OpenFOAM: The Open Source CFD Toolbox           |
|  \\    /   O peration     | Version:  v2012                                 |
|   \\  /    A nd           | Website:  www.openfoam.com                      |
|    \\/     M anipulation  |                                                 |
\*---------------------------------------------------------------------------*/
FoamFile
{
    version     2.0;
    format      ascii;
    class       polyBoundaryMesh;
    location    "constant/polyMesh";
    object      boundary;
}
// * * * * * * * * * * * * * * * * * * * * * * * * * * * * * * * * * * * * * //

8
(
    inlet
    {
        type            patch;
        nFaces          0;
        startFace       6431;
    }
    outlet
    {
        type            patch;
        nFaces          48;
        startFace       6431;
    }
    walls
    {
        type            wall;
        inGroups        1(wall);
        nFaces          100;
        startFace       6479;
    }
    side1
    {
        type            cyclic;
        inGroups        1(cyclic);
        nFaces          1321;
        startFace       6579;
        matchTolerance  0.0001;
        transform       unknown;
        neighbourPatch  side2;
    }
    side2
    {
        type            cyclic;
        inGroups        1(cyclic);
        nFaces          1321;
        startFace       7900;
        matchTolerance  0.0001;
        transform       unknown;
        neighbourPatch  side1;
    }
    procBoundary2to0
    {
        type            processor;
        inGroups        1(processor);
        nFaces          112;
        startFace       9221;
        matchTolerance  0.0001;
        transform       unknown;
        myProcNo        2;
        neighbProcNo    0;
    }
    procBoundary2to1
    {
        type            processor;
        inGroups        1(processor);
        nFaces          74;
        startFace       9333;
        matchTolerance  0.0001;
        transform       unknown;
        myProcNo        2;
        neighbProcNo    1;
    }
    procBoundary2to3
    {
        type            processor;
        inGroups        1(processor);
        nFaces          14;
        startFace       9407;
        matchTolerance  0.0001;
        transform       unknown;
        myProcNo        2;
        neighbProcNo    3;
    }
)

// ************************************************************************* //
