/*--------------------------------*- C++ -*----------------------------------*\
| =========                 |                                                 |
| \\      /  F ield         | OpenFOAM: The Open Source CFD Toolbox           |
|  \\    /   O peration     | Version:  v2012                                 |
|   \\  /    A nd           | Website:  www.openfoam.com                      |
|    \\/     M anipulation  |                                                 |
\*---------------------------------------------------------------------------*/
FoamFile
{
    version     2.0;
    format      ascii;
    class       polyBoundaryMesh;
    location    "constant/polyMesh";
    object      boundary;
}
// * * * * * * * * * * * * * * * * * * * * * * * * * * * * * * * * * * * * * //

6
(
    inlet
    {
        type            patch;
        nFaces          0;
        startFace       7000;
    }
    outlet
    {
        type            patch;
        nFaces          56;
        startFace       7000;
    }
    walls
    {
        type            wall;
        inGroups        1(wall);
        nFaces          108;
        startFace       7056;
    }
    sides
    {
        type            symmetry;
        inGroups        1(symmetry);
        nFaces          1695;
        startFace       7164;
    }
    procBoundary2to0
    {
        type            processor;
        inGroups        1(processor);
        nFaces          120;
        startFace       8859;
        matchTolerance  0.0001;
        transform       unknown;
        myProcNo        2;
        neighbProcNo    0;
    }
    procBoundary2to1
    {
        type            processor;
        inGroups        1(processor);
        nFaces          122;
        startFace       8979;
        matchTolerance  0.0001;
        transform       unknown;
        myProcNo        2;
        neighbProcNo    1;
    }
)

// ************************************************************************* //
