/*--------------------------------*- C++ -*----------------------------------*\
| =========                 |                                                 |
| \\      /  F ield         | OpenFOAM: The Open Source CFD Toolbox           |
|  \\    /   O peration     | Version:  v2006                                 |
|   \\  /    A nd           | Website:  www.openfoam.com                      |
|    \\/     M anipulation  |                                                 |
\*---------------------------------------------------------------------------*/
FoamFile
{
    version     2.0;
    format      ascii;
    class       polyBoundaryMesh;
    location    "constant/polyMesh";
    object      boundary;
}
// * * * * * * * * * * * * * * * * * * * * * * * * * * * * * * * * * * * * * //

4
(
    Inlet
    {
        type            patch;
        nFaces          26;
        startFace       23448;
    }
    Outlet
    {
        type            patch;
        nFaces          26;
        startFace       23474;
    }
    Symmetric
    {
        type            symmetry;
        nFaces          9414;
        startFace       23500;
    }
    Wall
    {
        type            wall;
        nFaces          1026;
        startFace       32914;
    }
)

// ************************************************************************* //
