/*--------------------------------*- C++ -*----------------------------------*\
| =========                 |                                                 |
| \\      /  F ield         | OpenFOAM: The Open Source CFD Toolbox           |
|  \\    /   O peration     | Version:  v2012                                 |
|   \\  /    A nd           | Website:  www.openfoam.com                      |
|    \\/     M anipulation  |                                                 |
\*---------------------------------------------------------------------------*/
FoamFile
{
    version     2.0;
    format      ascii;
    class       polyBoundaryMesh;
    location    "constant/polyMesh";
    object      boundary;
}
// * * * * * * * * * * * * * * * * * * * * * * * * * * * * * * * * * * * * * //

4
(
    inlet
    {
        type            wall;
        inGroups        1(wall);
        nFaces          4987;
        startFace       256280;
    }
    outlet
    {
        type            wall;
        inGroups        1(wall);
        nFaces          4987;
        startFace       261267;
    }
    sides
    {
        type            wall;
        inGroups        1(wall);
        nFaces          6732;
        startFace       266254;
    }
    walls
    {
        type            wall;
        inGroups        1(wall);
        nFaces          10458;
        startFace       272986;
    }
)

// ************************************************************************* //
