/*--------------------------------*- C++ -*----------------------------------*\
| =========                 |                                                 |
| \\      /  F ield         | OpenFOAM: The Open Source CFD Toolbox           |
|  \\    /   O peration     | Version:  v2012                                 |
|   \\  /    A nd           | Website:  www.openfoam.com                      |
|    \\/     M anipulation  |                                                 |
\*---------------------------------------------------------------------------*/
FoamFile
{
    version     2.0;
    format      ascii;
    class       polyBoundaryMesh;
    location    "constant/polyMesh";
    object      boundary;
}
// * * * * * * * * * * * * * * * * * * * * * * * * * * * * * * * * * * * * * //

4
(
    allBoundary
    {
        type            patch;
        nFaces          240;
        startFace       7779;
    }
    outlet
    {
        type            wall;
        inGroups        1(wall);
        nFaces          141;
        startFace       8019;
    }
    sides
    {
        type            wall;
        inGroups        1(wall);
        nFaces          660;
        startFace       8160;
    }
    walls
    {
        type            wall;
        inGroups        1(wall);
        nFaces          321;
        startFace       8820;
    }
)

// ************************************************************************* //
