/*--------------------------------*- C++ -*----------------------------------*\
| =========                 |                                                 |
| \\      /  F ield         | OpenFOAM: The Open Source CFD Toolbox           |
|  \\    /   O peration     | Version:  4.0                                   |
|   \\  /    A nd           | Web:      www.OpenFOAM.org                      |
|    \\/     M anipulation  |                                                 |
\*---------------------------------------------------------------------------*/
FoamFile
{
    version     2.0;
    format      ascii;
    class       dictionary;
    object      blockMeshDict;
}
// * * * * * * * * * * * * * * * * * * * * * * * * * * * * * * * * * * * * * //

convertToMeters 0.001; //scales to mm 

//These vertices define the block below. It envelopes the stl files. The block can be even bigger than the stl files
//Watch out if the stl files are created in mm or m!

vertices
(
    (0 0 0)
	(0 80 0)
	(30 80 0)
	(30 50 0)
	(1 50 0)
	(1 40 0)
	(30 40 0)
	(30 0 0)
	(29.98 0 1.05)
	(29.98 40 1.05)
	(0.999 40 0.035)
	(0.999 50 0.035)
	(29.98 50 1.05)
	(29.98 80 1.05)
	
);

blocks
(
    hex (0 1 2 3 4 5 6 7 8 9 10 11 12 13) (20 20 30) simpleGrading (1 1 1)//coarse grid - we will refine in snappyHexMeshDict
);

edges
(
);

boundary
(
    allBoundary//Don't worry about these settings
    {
        type patch;
        faces
        (
            (0 7 6 2)
            (0 4 7 3)
            (2 6 5 1)
            (1 5 4 0)
            (0 3 2 1)
            (4 5 6 7)
        );
    }
);

// ************************************************************************* //
