/*--------------------------------*- C++ -*----------------------------------*\
| =========                 |                                                 |
| \\      /  F ield         | OpenFOAM: The Open Source CFD Toolbox           |
|  \\    /   O peration     | Version:  4.0                                   |
|   \\  /    A nd           | Web:      www.OpenFOAM.org                      |
|    \\/     M anipulation  |                                                 |
\*---------------------------------------------------------------------------*/
FoamFile
{
    version     2.0;
    format      ascii;
    class       dictionary;
    object      blockMeshDict;
}
// * * * * * * * * * * * * * * * * * * * * * * * * * * * * * * * * * * * * * //

convertToMeters 1;//0.001; LP: .stl has no dimensions!

vertices
(
    (-0.5 -0.5 -0.1) // 0
    (30.5 -0.5 -0.1) // 1
    (30.5 80.5 -0.1) // 2
    (-0.5 80.5 -0.1) // 3
    (-0.5 -0.5 1.1) // 4
    (30.5 -0.5 1.1) // 5
    (30.5 80.5 1.1) // 6
    (-0.5 80.5 1.1) // 7
);

blocks
(
    hex (0 1 2 3 0 5 6 3) (20 40 10) simpleGrading (1 1 1)//coarse grid - we will refine in snappyHexMeshDict
    //hex collapses vertices onto each other to create 6 sided wedge block. here we collapse 4 to 0 & 7 to 3
);

edges
(
);

boundary
(
    allBoundary//Don't worry about these settings
    {
        type patch;
        faces
        (
            (3 3 6 2)
            (0 0 3 3)
            (2 6 5 1)
            (1 5 0 0)
            (0 3 2 1)
            (0 5 6 3)
            // (3 7 6 2)
            // (0 4 7 3)
            // (2 6 5 1)
            // (1 5 4 0)
            // (0 3 2 1)
            // (4 5 6 7)
        );
    }
);


// ************************************************************************* //
