/*--------------------------------*- C++ -*----------------------------------*\
| =========                 |                                                 |
| \\      /  F ield         | OpenFOAM: The Open Source CFD Toolbox           |
|  \\    /   O peration     | Version:  v2012                                 |
|   \\  /    A nd           | Website:  www.openfoam.com                      |
|    \\/     M anipulation  |                                                 |
\*---------------------------------------------------------------------------*/
FoamFile
{
    version     2.0;
    format      ascii;
    class       polyBoundaryMesh;
    location    "constant/polyMesh";
    object      boundary;
}
// * * * * * * * * * * * * * * * * * * * * * * * * * * * * * * * * * * * * * //

6
(
    inlet
    {
        type            patch;
        nFaces          82;
        startFace       8134;
    }
    outlet
    {
        type            patch;
        nFaces          0;
        startFace       8216;
    }
    walls
    {
        type            wall;
        inGroups        1(wall);
        nFaces          166;
        startFace       8216;
    }
    side1
    {
        type            cyclic;
        inGroups        1(cyclic);
        nFaces          1660;
        startFace       8382;
        matchTolerance  0.0001;
        transform       unknown;
        neighbourPatch  side2;
    }
    side2
    {
        type            cyclic;
        inGroups        1(cyclic);
        nFaces          1660;
        startFace       10042;
        matchTolerance  0.0001;
        transform       unknown;
        neighbourPatch  side1;
    }
    procBoundary2to1
    {
        type            processor;
        inGroups        1(processor);
        nFaces          84;
        startFace       11702;
        matchTolerance  0.0001;
        transform       unknown;
        myProcNo        2;
        neighbProcNo    1;
    }
)

// ************************************************************************* //
