/*--------------------------------*- C++ -*----------------------------------*\
| =========                 |                                                 |
| \\      /  F ield         | OpenFOAM: The Open Source CFD Toolbox           |
|  \\    /   O peration     | Version:  v2012                                 |
|   \\  /    A nd           | Website:  www.openfoam.com                      |
|    \\/     M anipulation  |                                                 |
\*---------------------------------------------------------------------------*/
FoamFile
{
    version     2.0;
    format      ascii;
    class       extendedFeatureEdgeMesh;
    location    "constant/extendedFeatureEdgeMesh";
    object      outlet.extendedFeatureEdgeMesh;
}
// * * * * * * * * * * * * * * * * * * * * * * * * * * * * * * * * * * * * * //

// points
5((29.9817 0 1.04699) (29.9919 0 0.698069) (0 0 0) (29.998 0 0.349058) (30 0 0))
// edges
7((1 2) (3 2) (0 1) (2 0) (1 3) (3 4) (4 2))
// concaveStart mixedStart nonFeatureStart
0 0 5
// internalStart flatStart openStart multipleStart
0 0 2 7
// normals
3{(0 1 0)}
// normal volume types

3
(
0
0
0
)

// normalDirections

7
(
2(1 -1)
2(1 -1)
1(1)
1(1)
1(1)
1(1)
1(1)
)

// edgeNormals

7
(
2(0 1)
2(1 2)
1(0)
1(0)
1(1)
1(2)
1(2)
)

// featurePointNormals

5
(
1(0)
1(0)
1(0)
1(1)
1(2)
)

// featurePointEdges

5
(
2(2 3)
3(0 2 4)
4(0 1 3 6)
3(1 4 5)
2(5 6)
)

// regionEdges
5(2 3 4 5 6)


// ************************************************************************* //
