/*--------------------------------*- C++ -*----------------------------------*\
| =========                 |                                                 |
| \\      /  F ield         | OpenFOAM: The Open Source CFD Toolbox           |
|  \\    /   O peration     | Version:  v2012                                 |
|   \\  /    A nd           | Website:  www.openfoam.com                      |
|    \\/     M anipulation  |                                                 |
\*---------------------------------------------------------------------------*/
FoamFile
{
    version     2.0;
    format      ascii;
    class       extendedFeatureEdgeMesh;
    location    "constant/extendedFeatureEdgeMesh";
    object      sides.extendedFeatureEdgeMesh;
}
// * * * * * * * * * * * * * * * * * * * * * * * * * * * * * * * * * * * * * //

// points

14
(
(30 40 0)
(30 0 0)
(1 40 0)
(0 0 0)
(0 80 0)
(1 50 0)
(30 80 0)
(30 50 0)
(29.9817 40 1.04699)
(0.999391 40 0.0348995)
(29.9817 0 1.04699)
(0.999391 50 0.0348995)
(29.9817 80 1.04699)
(29.9817 50 1.04699)
)

// edges

25
(
(3 4)
(1 2)
(3 2)
(4 2)
(4 5)
(6 5)
(9 10)
(9 3)
(9 4)
(11 4)
(11 12)
(0 1)
(2 0)
(1 3)
(5 2)
(4 6)
(6 7)
(7 5)
(8 9)
(10 8)
(3 10)
(9 11)
(12 4)
(11 13)
(13 12)
)

// concaveStart mixedStart nonFeatureStart
0 0 14
// internalStart flatStart openStart multipleStart
1 1 11 25
// normals

12
(
(-0 -0 -1)
(0 -0 -1)
(0 0 -1)
(0 0 -1)
(0 0 -1)
(-0.0348995 0 0.999391)
(-0.0348995 1.43977e-10 0.999391)
(-0.0348995 0 0.999391)
(-0.0348995 -1.91969e-10 0.999391)
(-0.0348995 0 0.999391)
(-0 0 -1)
(-0.0348995 0 0.999391)
)

// normal volume types

12
(
0
0
0
0
0
0
0
0
0
0
0
0
)

// normalDirections

25
(
2(1 -1)
2(1 -1)
2(1 -1)
2(1 -1)
2(1 -1)
2(1 -1)
2(1 -1)
2(1 -1)
2(1 -1)
2(1 -1)
2(1 -1)
1(1)
1(1)
1(1)
1(1)
1(1)
1(1)
1(1)
1(1)
1(1)
1(1)
1(1)
1(1)
1(1)
1(1)
)

// edgeNormals

25
(
2(10 11)
2(0 1)
2(1 10)
2(10 2)
2(2 3)
2(3 4)
2(5 6)
2(6 11)
2(11 7)
2(7 8)
2(8 9)
1(0)
1(0)
1(1)
1(2)
1(3)
1(4)
1(4)
1(5)
1(5)
1(6)
1(7)
1(8)
1(9)
1(9)
)

// featurePointNormals

14
(
1(0)
1(0)
1(0)
2(10 11)
2(10 11)
1(2)
1(3)
1(4)
1(5)
1(5)
1(5)
1(7)
1(8)
1(9)
)

// featurePointEdges

14
(
2(11 12)
3(1 11 13)
5(1 2 3 12 14)
5(2 0 7 13 20)
7(3 0 4 8 9 15 22)
4(4 5 14 17)
3(5 15 16)
2(16 17)
2(18 19)
5(6 7 8 18 21)
3(6 19 20)
4(9 10 21 23)
3(10 22 24)
2(23 24)
)

// regionEdges

14
(
11
12
13
14
15
16
17
18
19
20
21
22
23
24
)



// ************************************************************************* //
