/*--------------------------------*- C++ -*----------------------------------*\
| =========                 |                                                 |
| \\      /  F ield         | OpenFOAM: The Open Source CFD Toolbox           |
|  \\    /   O peration     | Version:  v2012                                 |
|   \\  /    A nd           | Website:  www.openfoam.com                      |
|    \\/     M anipulation  |                                                 |
\*---------------------------------------------------------------------------*/
FoamFile
{
    version     2.0;
    format      ascii;
    class       extendedFeatureEdgeMesh;
    location    "constant/extendedFeatureEdgeMesh";
    object      walls.extendedFeatureEdgeMesh;
}
// * * * * * * * * * * * * * * * * * * * * * * * * * * * * * * * * * * * * * //

// points

24
(
(30 80 0)
(29.998 80 0.349058)
(30 50 0)
(29.998 50 0.349058)
(29.9919 50 0.698069)
(29.9919 80 0.698069)
(29.9817 50 1.04699)
(29.9817 80 1.04699)
(0.999729 50 0.023269)
(0.999391 50 0.0348995)
(0.999932 50 0.0116353)
(1 50 0)
(0.999391 40 0.0348995)
(0.999729 40 0.023269)
(0.999932 40 0.0116353)
(1 40 0)
(29.9817 40 1.04699)
(29.9919 40 0.698069)
(29.998 40 0.349058)
(30 40 0)
(29.9817 0 1.04699)
(29.9919 0 0.698069)
(29.998 0 0.349058)
(30 0 0)
)

// edges

53
(
(1 3)
(3 2)
(4 3)
(5 4)
(6 4)
(13 8)
(14 10)
(16 17)
(17 18)
(18 19)
(21 17)
(22 18)
(9 8)
(8 10)
(10 11)
(12 13)
(13 14)
(14 15)
(1 4)
(13 9)
(13 10)
(14 11)
(21 16)
(22 19)
(1 2)
(5 6)
(2 9)
(8 2)
(3 9)
(4 9)
(10 2)
(17 12)
(18 12)
(19 12)
(14 19)
(13 19)
(21 18)
(0 1)
(2 0)
(1 5)
(5 7)
(7 6)
(11 2)
(6 9)
(9 12)
(15 11)
(12 16)
(19 15)
(20 21)
(16 20)
(21 22)
(22 23)
(23 19)
)

// concaveStart mixedStart nonFeatureStart
0 0 24
// internalStart flatStart openStart multipleStart
12 18 37 53
// normals

30
(
(0.999983 0 0.00581389)
(0.999848 -0 0.0174471)
(0.999576 -0 0.0291077)
(0 -1 0)
(-0 -1 0)
(0.999577 -0 0.0290865)
(0.999983 0 0.00581935)
(0 1 0)
(0 1 -0)
(0.999576 -0 0.0291077)
(0.999848 0 0.0174471)
(0.999983 0 0.00581389)
(0.999983 0 0.00581389)
(0.999848 -0 0.0174471)
(0 -1 0)
(0 -1 0)
(0.999576 -0 0.0291077)
(0.999577 0 0.0290865)
(0.999848 0 0.0174529)
(0.999848 0 0.0174529)
(0.999983 0 0.00581935)
(0.999576 0 0.0291077)
(0 1 0)
(0.999848 0 0.0174471)
(-0 1 0)
(0.999983 0 0.00581389)
(0 -1 0)
(0 -1 0)
(0 1 0)
(0 1 0)
)

// normal volume types

30
(
0
0
0
0
0
0
0
0
0
0
0
0
0
0
0
0
0
0
0
0
0
0
0
0
0
0
0
0
0
0
)

// normalDirections

53
(
2(1 -1)
2(1 -1)
2(1 -1)
2(1 -1)
2(1 -1)
2(1 -1)
2(1 -1)
2(1 -1)
2(1 -1)
2(1 -1)
2(1 -1)
2(1 -1)
2(1 -1)
2(1 -1)
2(1 -1)
2(1 -1)
2(1 -1)
2(1 -1)
2(1 -1)
2(1 -1)
2(1 -1)
2(1 -1)
2(1 -1)
2(1 -1)
2(1 -1)
2(1 -1)
2(1 -1)
2(1 -1)
2(1 -1)
2(1 -1)
2(1 -1)
2(1 -1)
2(1 -1)
2(1 -1)
2(1 -1)
2(1 -1)
2(1 -1)
1(1)
1(1)
1(1)
1(1)
1(1)
1(1)
1(1)
1(1)
1(1)
1(1)
1(1)
1(1)
1(1)
1(1)
1(1)
1(1)
)

// edgeNormals

53
(
2(12 13)
2(12 14)
2(13 15)
2(1 16)
2(16 4)
2(17 18)
2(19 20)
2(7 21)
2(22 23)
2(24 25)
2(21 23)
2(10 25)
2(26 17)
2(27 18)
2(3 20)
2(5 28)
2(19 29)
2(6 8)
2(13 1)
2(5 17)
2(18 19)
2(20 6)
2(9 21)
2(25 11)
2(0 12)
2(16 2)
2(26 14)
2(26 27)
2(14 15)
2(15 4)
2(27 3)
2(7 22)
2(22 24)
2(24 28)
2(8 29)
2(29 28)
2(23 10)
1(0)
1(0)
1(1)
1(2)
1(2)
1(3)
1(4)
1(5)
1(6)
1(7)
1(8)
1(9)
1(9)
1(10)
1(11)
1(11)
)

// featurePointNormals

24
(
1(0)
2(12 13)
2(12 14)
3(12 13 14)
3(13 15 16)
2(1 16)
2(16 4)
1(2)
3(17 18 26)
2(26 17)
3(19 20 27)
2(3 20)
2(5 28)
3(17 18 28)
3(19 20 29)
2(6 8)
2(7 21)
3(7 21 23)
3(22 23 25)
2(24 25)
1(9)
2(21 23)
2(10 25)
1(11)
)

// featurePointEdges

24
(
2(37 38)
5(24 0 18 37 39)
7(24 1 26 27 30 38 42)
4(0 2 28 1)
5(18 3 4 29 2)
4(3 25 39 40)
4(25 4 41 43)
2(40 41)
4(27 13 5 12)
7(26 12 28 29 19 43 44)
5(30 14 6 20 13)
4(14 21 42 45)
6(15 31 32 33 44 46)
6(19 5 20 16 35 15)
5(6 21 17 34 16)
3(17 45 47)
4(7 22 46 49)
4(31 8 10 7)
5(32 9 11 36 8)
7(33 9 34 35 23 47 52)
2(48 49)
5(22 10 36 48 50)
4(11 23 50 51)
2(51 52)
)

// regionEdges

16
(
37
38
39
40
41
42
43
44
45
46
47
48
49
50
51
52
)



// ************************************************************************* //
