/*--------------------------------*- C++ -*----------------------------------*\
| =========                 |                                                 |
| \\      /  F ield         | OpenFOAM: The Open Source CFD Toolbox           |
|  \\    /   O peration     | Version:  v2012                                 |
|   \\  /    A nd           | Website:  www.openfoam.com                      |
|    \\/     M anipulation  |                                                 |
\*---------------------------------------------------------------------------*/
FoamFile
{
    version     2.0;
    format      ascii;
    class       polyBoundaryMesh;
    location    "constant/polyMesh";
    object      boundary;
}
// * * * * * * * * * * * * * * * * * * * * * * * * * * * * * * * * * * * * * //

9
(
    inlet
    {
        type            patch;
        nFaces          0;
        startFace       8162;
    }
    outlet
    {
        type            patch;
        nFaces          0;
        startFace       8162;
    }
    walls
    {
        type            wall;
        inGroups        1(wall);
        nFaces          0;
        startFace       8162;
    }
    side1
    {
        type            cyclic;
        inGroups        1(cyclic);
        nFaces          1666;
        startFace       8162;
        matchTolerance  0.0001;
        transform       unknown;
        neighbourPatch  side2;
    }
    side2
    {
        type            cyclic;
        inGroups        1(cyclic);
        nFaces          1666;
        startFace       9828;
        matchTolerance  0.0001;
        transform       unknown;
        neighbourPatch  side1;
    }
    procBoundary4to0
    {
        type            processor;
        inGroups        1(processor);
        nFaces          52;
        startFace       11494;
        matchTolerance  0.0001;
        transform       unknown;
        myProcNo        4;
        neighbProcNo    0;
    }
    procBoundary4to1
    {
        type            processor;
        inGroups        1(processor);
        nFaces          32;
        startFace       11546;
        matchTolerance  0.0001;
        transform       unknown;
        myProcNo        4;
        neighbProcNo    1;
    }
    procBoundary4to3
    {
        type            processor;
        inGroups        1(processor);
        nFaces          88;
        startFace       11578;
        matchTolerance  0.0001;
        transform       unknown;
        myProcNo        4;
        neighbProcNo    3;
    }
    procBoundary4to5
    {
        type            processor;
        inGroups        1(processor);
        nFaces          86;
        startFace       11666;
        matchTolerance  0.0001;
        transform       unknown;
        myProcNo        4;
        neighbProcNo    5;
    }
)

// ************************************************************************* //
